1
EulerStep
H	1.0	0	0
1
EulerStep
H	1.0	0	0
1
EulerStep
H	0.99	0	0
1
EulerStep
H	0.97	0	0
1
EulerStep
H	0.9400999999999999	0	0
1
EulerStep
H	0.9005	0	0
1
EulerStep
H	0.851499	0	0
1
EulerStep
H	0.793493	0	0
1
EulerStep
H	0.72697201	0	0
1
EulerStep
H	0.65251609	0	0
1
EulerStep
H	0.5707904498999999	0	0
1
EulerStep
H	0.4825396488999999	0	0
1
EulerStep
H	0.3885809434009999	0	0
1
EulerStep
H	0.2897968414129999	0	0
1
EulerStep
H	0.18712692999098987	0	0
1
EulerStep
H	0.08155905015484986	0	0
1
EulerStep
H	-0.025880098981200042	0	0
1
EulerStep
H	-0.13413483861879844	0	0
1
EulerStep
H	-0.24213077726658483	0	0
1
EulerStep
H	-0.34878536752818323	0	0
1
EulerStep
H	-0.45301865001711583	0	0
1
EulerStep
H	-0.5537640788307666	0	0
1
EulerStep
H	-0.6499793211442462	0	0
1
EulerStep
H	-0.7406569226694181	0	0
1
EulerStep
H	-0.8248347309831475	0	0
1
EulerStep
H	-0.9016059700701828	0	0
1
EulerStep
H	-0.9701288618473867	0	0
1
EulerStep
H	-1.0296356939238887	0	0
1
EulerStep
H	-1.0794412373819167	0	0
1
EulerStep
H	-1.118950423900706	0	0
1
EulerStep
H	-1.147665198045676	0	0
1
EulerStep
H	-1.165190467951639	0	0
1
EulerStep
H	-1.171239085877145	0	0
1
EulerStep
H	-1.165635799123135	0	0
1
EulerStep
H	-1.1483201215103533	0	0
1
EulerStep
H	-1.1193480859063403	0	0
1
EulerStep
H	-1.0788928490872238	0	0
1
EulerStep
H	-1.027244131409044	0	0
1
EulerStep
H	-0.9648064852399918	0	0
1
EulerStep
H	-0.8920963977568492	0	0
1
EulerStep
H	-0.8097382454213067	0	0
1
EulerStep
H	-0.7184591291081956	0	0
1
EulerStep
H	-0.6190826303408716	0	0
1
EulerStep
H	-0.5125215402824655	0	0
1
EulerStep
H	-0.3997696239206508	0	0
1
EulerStep
H	-0.28189249215601137	0	0
1
EulerStep
H	-0.16001766415216545	0	0
1
EulerStep
H	-0.035323911226759416	0	0
1
EulerStep
H	0.09097001834016828	0	0
1
EulerStep
H	0.21761718701936356	0	0
1
EulerStep
H	0.34335465551515715	0	0
1
EulerStep
H	0.4669159521407571	0	0
1
EulerStep
H	0.5870437022112055	0	0
1
EulerStep
H	0.7025022927602463	0	0
1
EulerStep
H	0.8120904462871751	0	0
1
EulerStep
H	0.9146535768865014	0	0
1
EulerStep
H	1.009095803022956	0	0
1
EulerStep
H	1.0943914933905456	0	0
1
EulerStep
H	1.1695962257279056	0	0
1
EulerStep
H	1.23385704313136	0	0
1
EulerStep
H	1.2864218982775355	0	0
1
EulerStep
H	1.3266481829923973	0	0
1
EulerStep
H	1.3540102487244838	0	0
1
EulerStep
H	1.3681058326266464	0	0
1
EulerStep
H	1.3686613140415642	0	0
1
EulerStep
H	1.3555357371302155	0	0
1
EulerStep
H	1.328723547078451	0	0
1
EulerStep
H	1.2883559996553846	0	0
1
EulerStep
H	1.2347012167615334	0	0
1
EulerStep
H	1.1681628738711285	0	0
1
EulerStep
H	1.0892775188131083	0	0
1
EulerStep
H	0.9987105350163767	0	0
1
EulerStep
H	0.8972507760315142	0	0
1
EulerStep
H	0.7858039116964878	0	0
1
EulerStep
H	0.6653845396011462	0	0
1
EulerStep
H	0.5371071283888398	0	0
1
EulerStep
H	0.40217587178052194	0	0
1
EulerStep
H	0.26187354388831563	0	0
1
EulerStep
H	0.11754945727830415	0	0
1
EulerStep
H	-0.029393364770590485	0	0
1
EulerStep
H	-0.17751168139226817	0	0
1
EulerStep
H	-0.32533606436623996	0	0
1
EulerStep
H	-0.47138533052628906	0	0
1
EulerStep
H	-0.6141812360426757	0	0
1
EulerStep
H	-0.7522632882537995	0	0
1
EulerStep
H	-0.8842035281044965	0	0
1
EulerStep
H	-1.0086211350726555	0	0
1
EulerStep
H	-1.1241967067597696	0	0
1
EulerStep
H	-1.2296860670961571	0	0
1
EulerStep
H	-1.3239334603649469	0	0
1
EulerStep
H	-1.405883992962775	0	0
1
EulerStep
H	-1.474595190956954	0	0
1
EulerStep
H	-1.529247549021505	0	0
1
EulerStep
H	-1.5691539551764864	0	0
1
EulerStep
H	-1.5937678858412527	0	0
1
EulerStep
H	-1.6026902769542544	0	0
1
EulerStep
H	-1.5956749892088433	0	0
1
EulerStep
H	-1.5726327986938897	0	0
1
EulerStep
H	-1.5336338582868478	0	0
1
EulerStep
H	-1.4789085898928669	0	0
